37
https://www.webqc.org/molecularformatsconverter.php
C         -7.68000        5.00400        0.00000
C         -5.21000        3.99900        0.00000
C          4.64100       -5.00400        0.00000
C          6.50300       -4.33100        0.00000
C          2.60900       -0.39000        0.00000
C         -0.52300       -3.96900        0.00000
C          0.04300       -4.17100        0.00000
C         -2.68400        1.08600        0.00000
C         -6.37000        1.14600        0.00000
C         -7.31500        2.36100        0.00000
C         -0.42200        0.15200        0.00000
C          1.09300       -0.11900        0.00000
C         -3.38200       -2.55500        0.00000
C          2.66300       -4.46400        0.00000
C          5.64100       -0.93200        0.00000
C         -4.84500        1.35600        0.00000
C          4.12500       -0.66100        0.00000
C         -2.10800       -3.41900        0.00000
C          1.14700       -4.19300        0.00000
C         -6.73500        3.78800        0.00000
C         -1.41500       -1.02500        0.00000
C         -2.95400       -1.07500        0.00000
C          3.65600       -3.28700        0.00000
C          1.61700       -1.56700        0.00000
C          6.16400       -2.38100        0.00000
C          5.17200       -3.55800        0.00000
C          3.13200       -1.83800        0.00000
C         -0.89200       -2.47400        0.00000
C          0.62400       -2.74500        0.00000
C         -3.90000        0.14000        0.00000
O          7.68000       -2.65200        0.00000
O         -5.11500       -0.80500        0.00000
H          0.10100       -1.29600        0.00000
H         -2.30000        0.31900        0.00000
H          4.64800       -2.11000        0.00000
H          2.14000       -3.01600        0.00000
H          6.68800       -3.82900        0.00000
